105
Frame 1
N -1.3312 1.4425 0.5700
C -0.7301 2.6232 0.4373
C -0.6720 0.3664 0.1902
C -0.4656 -1.8758 -0.1013
C 3.0007 0.7689 -1.3634
N 0.6029 0.5054 -0.3402
N -1.1953 -0.8379 0.3025
N 2.5121 -0.4660 -1.2674
N 0.4932 2.8195 -0.0502
C -1.4795 3.8007 0.8594
N 2.3809 1.8802 -0.9709
C 1.1733 1.7655 -0.4549
C 4.3285 0.9156 -1.9481
C 1.3079 -0.6162 -0.7540
N 0.7567 -1.8065 -0.6248
C -1.0557 -3.2015 0.0414
H -3.2264 2.6760 1.3440
C -0.8997 5.0686 0.7916
C -2.9248 6.0383 1.6627
C -2.7913 3.6624 1.3155
C -3.6607 7.2827 2.0522
H -4.5334 4.6522 2.0295
C -3.5074 4.7730 1.7115
C -1.6223 6.1745 1.1863
H 0.1102 5.1575 0.4242
H -1.1982 7.1658 1.1315
C -2.3250 -3.3487 0.6035
C -2.8733 -4.6065 0.7395
H -0.3351 -6.4530 -0.5426
C -0.3451 -4.3296 -0.3716
H -2.8536 -2.4663 0.9272
H 0.6411 -4.1949 -0.7870
C -0.9043 -5.5843 -0.2434
C -2.1776 -5.7320 0.3036
C -2.8192 -7.0719 0.4878
H -3.8471 -4.7440 1.1847
C 8.2210 1.2917 -3.6795
H 6.8449 -0.9180 -3.2834
C 6.2871 -0.0626 -2.9332
H 6.5638 3.3133 -2.7772
H 4.5779 -1.1805 -2.2666
C 6.8629 1.2002 -3.0568
C 4.8912 2.1844 -2.0950
C 6.1496 2.3238 -2.6435
H 4.3210 3.0422 -1.7750
C 5.0343 -0.2098 -2.3769
O -3.4547 8.3503 1.5093
N -4.5398 7.1272 3.0683
H -4.6733 6.2148 3.4733
N -2.5812 -7.9487 -0.5139
O -3.5122 -7.3322 1.4510
H -2.0260 -7.6625 -1.3042
C -3.0777 -9.3047 -0.5057
H -3.7392 -9.4590 -1.3659
C -1.9377 -10.3224 -0.5380
H -3.6613 -9.4145 0.4110
H -1.3432 -10.1714 -1.4433
H -1.2867 -10.1557 0.3226
C -2.4663 -11.7538 -0.5113
H -3.1347 -11.9075 -1.3619
C -1.3382 -12.7812 -0.5649
H -3.0501 -11.9041 0.3989
H -0.7522 -12.6282 -1.4745
H -0.6710 -12.6299 0.2867
C -1.8679 -14.2129 -0.5428
H -2.5404 -14.3620 -1.3910
C -0.7422 -15.2421 -0.6055
H -2.4490 -14.3682 0.3691
H -0.1590 -15.0844 -1.5160
H -0.0717 -15.0961 0.2447
C -1.2704 -16.6745 -0.5893
H -1.9418 -16.8205 -1.4386
C -0.1416 -17.6958 -0.6552
H -1.8514 -16.8338 0.3219
H 0.4381 -17.5652 -1.5664
H 0.5276 -17.5797 0.1946
H -0.5387 -18.7081 -0.6433
O 8.5774 0.5418 -4.5665
N 9.0163 2.2537 -3.1587
H 8.6787 2.8233 -2.3996
C 10.3497 2.5170 -3.6468
H 10.5391 1.7867 -4.4365
C 10.4821 3.9387 -4.1926
H 11.0738 2.3595 -2.8391
H 9.7598 4.0796 -4.9990
H 10.2454 4.6543 -3.4003
C 11.8915 4.2065 -4.7134
H 12.1196 3.4987 -5.5128
C 12.0465 5.6316 -5.2390
H 12.6112 4.0392 -3.9085
H 11.3309 5.7987 -6.0471
H 11.8131 6.3394 -4.4398
C 13.4592 5.9006 -5.7520
H 13.6894 5.2008 -6.5586
C 13.6220 7.3303 -6.2619
H 14.1755 5.7216 -4.9466
H 12.9076 7.5096 -7.0688
H 13.3902 8.0299 -5.4550
C 15.0353 7.6020 -6.7716
H 15.2651 6.9081 -7.5832
C 15.1932 9.0335 -7.2690
H 15.7502 7.4168 -5.9666
H 14.5015 9.2323 -8.0846
H 14.9883 9.7404 -6.4678
H 16.2053 9.2057 -7.6278
