
  xtb     01212111213D
 xtb: 6.3.3 (8d1dad5d26fa70d8c78cc3f4c837a3e1093e11cf)
 78 81  0     0  0            999 V2000
    0.3001   -1.0891   -0.7754 N   0  0  0  0  0  0  0  0  0  0  0  0
    0.3981   -1.1011    0.5505 C   0  0  0  0  0  0  0  0  0  0  0  0
    0.2534    1.2559   -0.6660 N   0  0  0  0  0  0  0  0  0  0  0  0
    0.1720    0.1798   -2.8022 C   0  0  0  0  0  0  0  0  0  0  0  0
    0.6374   -1.7816   -5.5104 H   0  0  0  0  0  0  0  0  0  0  0  0
    0.3680    1.1506    0.6546 C   0  0  0  0  0  0  0  0  0  0  0  0
    0.4494   -2.4006    1.2205 C   0  0  0  0  0  0  0  0  0  0  0  0
   -0.1225   -3.4899   -0.5253 H   0  0  0  0  0  0  0  0  0  0  0  0
    0.2429    0.1119   -1.3427 C   0  0  0  0  0  0  0  0  0  0  0  0
    0.4524   -0.0070    1.3038 N   0  0  0  0  0  0  0  0  0  0  0  0
    0.5348   -4.8700    2.5041 C   0  0  0  0  0  0  0  0  0  0  0  0
    0.3988    2.3848    1.4392 C   0  0  0  0  0  0  0  0  0  0  0  0
   -0.8475    6.8520    2.4105 H   0  0  0  0  0  0  0  0  0  0  0  0
    0.4300   -0.9568   -3.5659 C   0  0  0  0  0  0  0  0  0  0  0  0
    0.0503    0.4738   -7.0635 C   0  0  0  0  0  0  0  0  0  0  0  0
   -0.1241    1.3846   -3.4376 C   0  0  0  0  0  0  0  0  0  0  0  0
   -0.2164   -0.6889  -10.3092 C   0  0  0  0  0  0  0  0  0  0  0  0
    0.3896   -0.8944   -4.9442 C   0  0  0  0  0  0  0  0  0  0  0  0
    0.0805    0.3060   -5.5826 C   0  0  0  0  0  0  0  0  0  0  0  0
   -0.1674    1.4432   -4.8136 C   0  0  0  0  0  0  0  0  0  0  0  0
   -0.2261   -0.7234   -9.1026 C   0  0  0  0  0  0  0  0  0  0  0  0
   -0.3866    2.3677   -5.3265 H   0  0  0  0  0  0  0  0  0  0  0  0
    0.4922    3.5022    3.5623 C   0  0  0  0  0  0  0  0  0  0  0  0
    0.4740    2.3340    2.8305 C   0  0  0  0  0  0  0  0  0  0  0  0
    0.6760   -1.8777   -3.0607 H   0  0  0  0  0  0  0  0  0  0  0  0
    0.3599    3.6206    0.7954 C   0  0  0  0  0  0  0  0  0  0  0  0
    0.5165    1.3718    3.3154 H   0  0  0  0  0  0  0  0  0  0  0  0
    0.3281    3.6441   -0.2824 H   0  0  0  0  0  0  0  0  0  0  0  0
    0.3657    4.7884    1.5304 C   0  0  0  0  0  0  0  0  0  0  0  0
    1.1798   -3.7430    4.2315 H   0  0  0  0  0  0  0  0  0  0  0  0
    0.4255    5.9603    3.7769 C   0  0  0  0  0  0  0  0  0  0  0  0
    0.4177    4.7383    2.9226 C   0  0  0  0  0  0  0  0  0  0  0  0
    0.5588    3.4842    4.6397 H   0  0  0  0  0  0  0  0  0  0  0  0
    0.1471   -3.5651    0.5163 C   0  0  0  0  0  0  0  0  0  0  0  0
    0.8100   -2.4817    2.5640 C   0  0  0  0  0  0  0  0  0  0  0  0
    1.0610   -1.5746    3.0909 H   0  0  0  0  0  0  0  0  0  0  0  0
    0.8570   -3.7056    3.2002 C   0  0  0  0  0  0  0  0  0  0  0  0
    0.1920   -4.7856    1.1547 C   0  0  0  0  0  0  0  0  0  0  0  0
   -0.0341   -5.7001    0.6272 H   0  0  0  0  0  0  0  0  0  0  0  0
    0.5775   -6.2327    3.1072 C   0  0  0  0  0  0  0  0  0  0  0  0
    0.3846   -6.2576    4.4673 N   0  0  0  0  0  0  0  0  0  0  0  0
    0.7545   -7.2378    2.4535 O   0  0  0  0  0  0  0  0  0  0  0  0
    0.4588   -8.4404    5.7742 C   0  0  0  0  0  0  0  0  0  0  0  0
   -2.4215   12.2458    4.4238 C   0  0  0  0  0  0  0  0  0  0  0  0
    0.4112   -7.3885    5.1838 C   0  0  0  0  0  0  0  0  0  0  0  0
   -0.3114  -10.0712   12.2150 H   0  0  0  0  0  0  0  0  0  0  0  0
   -0.3147    2.2593   -2.8363 H   0  0  0  0  0  0  0  0  0  0  0  0
    0.3644    5.7370    1.0113 H   0  0  0  0  0  0  0  0  0  0  0  0
    0.5152   -9.6431    6.4862 C   0  0  0  0  0  0  0  0  0  0  0  0
   -1.2354   -5.3763  -14.9709 H   0  0  0  0  0  0  0  0  0  0  0  0
    0.5216   -9.7139    7.8031 C   0  0  0  0  0  0  0  0  0  0  0  0
   -3.2548   13.1443    4.0761 C   0  0  0  0  0  0  0  0  0  0  0  0
    0.5361   -9.7978    9.0643 C   0  0  0  0  0  0  0  0  0  0  0  0
    0.5629   -9.8899   10.3345 C   0  0  0  0  0  0  0  0  0  0  0  0
   -0.2952   -3.8715  -13.8823 C   0  0  0  0  0  0  0  0  0  0  0  0
    0.2248    1.5427   -7.6079 O   0  0  0  0  0  0  0  0  0  0  0  0
   -0.2771   -2.8260  -13.1550 C   0  0  0  0  0  0  0  0  0  0  0  0
    1.0114    6.0322    4.8342 O   0  0  0  0  0  0  0  0  0  0  0  0
   -0.3209    6.9933    3.2619 N   0  0  0  0  0  0  0  0  0  0  0  0
    0.1776   -5.4026    4.9647 H   0  0  0  0  0  0  0  0  0  0  0  0
   -0.4756    8.1693    3.8831 C   0  0  0  0  0  0  0  0  0  0  0  0
   -0.2009   -0.6807   -7.7645 N   0  0  0  0  0  0  0  0  0  0  0  0
   -0.5819    9.2105    4.4846 C   0  0  0  0  0  0  0  0  0  0  0  0
   -0.2469   -1.7838  -12.4403 C   0  0  0  0  0  0  0  0  0  0  0  0
   -0.2052   -0.6878  -11.7079 C   0  0  0  0  0  0  0  0  0  0  0  0
   -0.7356   10.4298    5.1532 C   0  0  0  0  0  0  0  0  0  0  0  0
   -0.4050   -1.5392   -7.2721 H   0  0  0  0  0  0  0  0  0  0  0  0
   -1.5954   11.3572    4.7785 C   0  0  0  0  0  0  0  0  0  0  0  0
   -0.1035   10.5860    6.0198 H   0  0  0  0  0  0  0  0  0  0  0  0
    0.5922   -9.9842   11.6317 C   0  0  0  0  0  0  0  0  0  0  0  0
   -0.1513    0.2850  -12.1837 H   0  0  0  0  0  0  0  0  0  0  0  0
   -0.3114   -4.9391  -14.6255 C   0  0  0  0  0  0  0  0  0  0  0  0
    0.6000   -5.4321  -14.9271 H   0  0  0  0  0  0  0  0  0  0  0  0
    1.5227   -9.9798   12.1783 H   0  0  0  0  0  0  0  0  0  0  0  0
   -4.1076   14.0599    3.7201 C   0  0  0  0  0  0  0  0  0  0  0  0
   -3.8431   14.8418    3.0251 H   0  0  0  0  0  0  0  0  0  0  0  0
   -5.1154   14.0756    4.1056 H   0  0  0  0  0  0  0  0  0  0  0  0
    0.5609  -10.5484    5.8911 H   0  0  0  0  0  0  0  0  0  0  0  0
  1  2  4  0  0  0  0
  3  6  4  0  0  0  0
  2  7  1  0  0  0  0
  1  9  4  0  0  0  0
  3  9  4  0  0  0  0
  4  9  1  0  0  0  0
  2 10  4  0  0  0  0
  6 10  4  0  0  0  0
  6 12  1  0  0  0  0
  4 14  4  0  0  0  0
  4 16  4  0  0  0  0
  5 18  1  0  0  0  0
 14 18  4  0  0  0  0
 15 19  1  0  0  0  0
 18 19  4  0  0  0  0
 16 20  4  0  0  0  0
 19 20  4  0  0  0  0
 17 21  3  0  0  0  0
 20 22  1  0  0  0  0
 12 24  4  0  0  0  0
 23 24  4  0  0  0  0
 14 25  1  0  0  0  0
 12 26  4  0  0  0  0
 24 27  1  0  0  0  0
 26 28  1  0  0  0  0
 26 29  4  0  0  0  0
 23 32  4  0  0  0  0
 29 32  4  0  0  0  0
 31 32  1  0  0  0  0
 23 33  1  0  0  0  0
  7 34  4  0  0  0  0
  8 34  1  0  0  0  0
  7 35  4  0  0  0  0
 35 36  1  0  0  0  0
 11 37  4  0  0  0  0
 30 37  1  0  0  0  0
 35 37  4  0  0  0  0
 11 38  4  0  0  0  0
 34 38  4  0  0  0  0
 38 39  1  0  0  0  0
 11 40  1  0  0  0  0
 40 41  1  0  0  0  0
 40 42  2  0  0  0  0
 41 45  1  0  0  0  0
 43 45  3  0  0  0  0
 16 47  1  0  0  0  0
 29 48  1  0  0  0  0
 43 49  1  0  0  0  0
 49 51  2  0  0  0  0
 44 52  2  0  0  0  0
 51 53  2  0  0  0  0
 53 54  2  0  0  0  0
 15 56  2  0  0  0  0
 55 57  2  0  0  0  0
 31 58  2  0  0  0  0
 13 59  1  0  0  0  0
 31 59  1  0  0  0  0
 41 60  1  0  0  0  0
 59 61  1  0  0  0  0
 15 62  1  0  0  0  0
 21 62  1  0  0  0  0
 61 63  3  0  0  0  0
 57 64  2  0  0  0  0
 17 65  1  0  0  0  0
 64 65  2  0  0  0  0
 63 66  1  0  0  0  0
 62 67  1  0  0  0  0
 44 68  2  0  0  0  0
 66 68  2  0  0  0  0
 66 69  1  0  0  0  0
 46 70  1  0  0  0  0
 54 70  2  0  0  0  0
 65 71  1  0  0  0  0
 50 72  1  0  0  0  0
 55 72  2  0  0  0  0
 72 73  1  0  0  0  0
 70 74  1  0  0  0  0
 52 75  2  0  0  0  0
 75 76  1  0  0  0  0
 75 77  1  0  0  0  0
 49 78  1  0  0  0  0
M  END
